/*--------------------------------*- C++ -*----------------------------------*\
  =========                 |
  \\      /  F ield         | OpenFOAM: The Open Source CFD Toolbox
   \\    /   O peration     | Website:  https://openfoam.org
    \\  /    A nd           | Version:  7
     \\/     M anipulation  |
\*---------------------------------------------------------------------------*/
FoamFile
{
    version     2.0;
    format      ascii;
    class       polyBoundaryMesh;
    location    "constant/polyMesh";
    object      boundary;
}
// * * * * * * * * * * * * * * * * * * * * * * * * * * * * * * * * * * * * * //

10
(
    inlet
    {
        type            patch;
        nFaces          0;
        startFace       5144;
    }
    outlet
    {
        type            patch;
        nFaces          0;
        startFace       5144;
    }
    cylinder
    {
        type            wall;
        inGroups        List<word> 1(wall);
        nFaces          0;
        startFace       5144;
    }
    top
    {
        type            symmetryPlane;
        inGroups        List<word> 1(symmetryPlane);
        nFaces          52;
        startFace       5144;
    }
    bottom
    {
        type            symmetryPlane;
        inGroups        List<word> 1(symmetryPlane);
        nFaces          0;
        startFace       5196;
    }
    defaultFaces
    {
        type            empty;
        inGroups        List<word> 1(empty);
        nFaces          5250;
        startFace       5196;
    }
    procBoundary14to9
    {
        type            processor;
        inGroups        List<word> 1(processor);
        nFaces          11;
        startFace       10446;
        matchTolerance  0.0001;
        transform       unknown;
        myProcNo        14;
        neighbProcNo    9;
    }
    procBoundary14to10
    {
        type            processor;
        inGroups        List<word> 1(processor);
        nFaces          57;
        startFace       10457;
        matchTolerance  0.0001;
        transform       unknown;
        myProcNo        14;
        neighbProcNo    10;
    }
    procBoundary14to13
    {
        type            processor;
        inGroups        List<word> 1(processor);
        nFaces          42;
        startFace       10514;
        matchTolerance  0.0001;
        transform       unknown;
        myProcNo        14;
        neighbProcNo    13;
    }
    procBoundary14to15
    {
        type            processor;
        inGroups        List<word> 1(processor);
        nFaces          50;
        startFace       10556;
        matchTolerance  0.0001;
        transform       unknown;
        myProcNo        14;
        neighbProcNo    15;
    }
)

// ************************************************************************* //
