/*--------------------------------*- C++ -*----------------------------------*\
  =========                 |
  \\      /  F ield         | OpenFOAM: The Open Source CFD Toolbox
   \\    /   O peration     | Website:  https://openfoam.org
    \\  /    A nd           | Version:  7
     \\/     M anipulation  |
\*---------------------------------------------------------------------------*/
FoamFile
{
    version     2.0;
    format      ascii;
    class       polyBoundaryMesh;
    location    "constant/polyMesh";
    object      boundary;
}
// * * * * * * * * * * * * * * * * * * * * * * * * * * * * * * * * * * * * * //

9
(
    inlet
    {
        type            patch;
        nFaces          0;
        startFace       1261;
    }
    outlet
    {
        type            patch;
        nFaces          0;
        startFace       1261;
    }
    cylinder
    {
        type            wall;
        inGroups        List<word> 1(wall);
        nFaces          0;
        startFace       1261;
    }
    top
    {
        type            symmetryPlane;
        inGroups        List<word> 1(symmetryPlane);
        nFaces          27;
        startFace       1261;
    }
    bottom
    {
        type            symmetryPlane;
        inGroups        List<word> 1(symmetryPlane);
        nFaces          0;
        startFace       1288;
    }
    defaultFaces
    {
        type            empty;
        inGroups        List<word> 1(empty);
        nFaces          1314;
        startFace       1288;
    }
    procBoundary13to9
    {
        type            processor;
        inGroups        List<word> 1(processor);
        nFaces          34;
        startFace       2602;
        matchTolerance  0.0001;
        transform       unknown;
        myProcNo        13;
        neighbProcNo    9;
    }
    procBoundary13to12
    {
        type            processor;
        inGroups        List<word> 1(processor);
        nFaces          24;
        startFace       2636;
        matchTolerance  0.0001;
        transform       unknown;
        myProcNo        13;
        neighbProcNo    12;
    }
    procBoundary13to14
    {
        type            processor;
        inGroups        List<word> 1(processor);
        nFaces          21;
        startFace       2660;
        matchTolerance  0.0001;
        transform       unknown;
        myProcNo        13;
        neighbProcNo    14;
    }
)

// ************************************************************************* //
