/*--------------------------------*- C++ -*----------------------------------*\
  =========                 |
  \\      /  F ield         | OpenFOAM: The Open Source CFD Toolbox
   \\    /   O peration     | Website:  https://openfoam.org
    \\  /    A nd           | Version:  7
     \\/     M anipulation  |
\*---------------------------------------------------------------------------*/
FoamFile
{
    version     2.0;
    format      ascii;
    class       polyBoundaryMesh;
    location    "constant/polyMesh";
    object      boundary;
}
// * * * * * * * * * * * * * * * * * * * * * * * * * * * * * * * * * * * * * //

11
(
    inlet
    {
        type            patch;
        nFaces          0;
        startFace       5137;
    }
    outlet
    {
        type            patch;
        nFaces          0;
        startFace       5137;
    }
    cylinder
    {
        type            wall;
        inGroups        List<word> 1(wall);
        nFaces          0;
        startFace       5137;
    }
    top
    {
        type            symmetryPlane;
        inGroups        List<word> 1(symmetryPlane);
        nFaces          0;
        startFace       5137;
    }
    bottom
    {
        type            symmetryPlane;
        inGroups        List<word> 1(symmetryPlane);
        nFaces          0;
        startFace       5137;
    }
    defaultFaces
    {
        type            empty;
        inGroups        List<word> 1(empty);
        nFaces          5250;
        startFace       5137;
    }
    procBoundary10to6
    {
        type            processor;
        inGroups        List<word> 1(processor);
        nFaces          55;
        startFace       10387;
        matchTolerance  0.0001;
        transform       unknown;
        myProcNo        10;
        neighbProcNo    6;
    }
    procBoundary10to9
    {
        type            processor;
        inGroups        List<word> 1(processor);
        nFaces          60;
        startFace       10442;
        matchTolerance  0.0001;
        transform       unknown;
        myProcNo        10;
        neighbProcNo    9;
    }
    procBoundary10to11
    {
        type            processor;
        inGroups        List<word> 1(processor);
        nFaces          53;
        startFace       10502;
        matchTolerance  0.0001;
        transform       unknown;
        myProcNo        10;
        neighbProcNo    11;
    }
    procBoundary10to14
    {
        type            processor;
        inGroups        List<word> 1(processor);
        nFaces          57;
        startFace       10555;
        matchTolerance  0.0001;
        transform       unknown;
        myProcNo        10;
        neighbProcNo    14;
    }
    procBoundary10to15
    {
        type            processor;
        inGroups        List<word> 1(processor);
        nFaces          1;
        startFace       10612;
        matchTolerance  0.0001;
        transform       unknown;
        myProcNo        10;
        neighbProcNo    15;
    }
)

// ************************************************************************* //
