/*--------------------------------*- C++ -*----------------------------------*\
  =========                 |
  \\      /  F ield         | OpenFOAM: The Open Source CFD Toolbox
   \\    /   O peration     | Website:  https://openfoam.org
    \\  /    A nd           | Version:  7
     \\/     M anipulation  |
\*---------------------------------------------------------------------------*/
FoamFile
{
    version     2.0;
    format      ascii;
    class       polyBoundaryMesh;
    location    "constant/polyMesh";
    object      boundary;
}
// * * * * * * * * * * * * * * * * * * * * * * * * * * * * * * * * * * * * * //

12
(
    inlet
    {
        type            patch;
        nFaces          0;
        startFace       5058;
    }
    outlet
    {
        type            patch;
        nFaces          0;
        startFace       5058;
    }
    cylinder
    {
        type            wall;
        inGroups        List<word> 1(wall);
        nFaces          148;
        startFace       5058;
    }
    top
    {
        type            symmetryPlane;
        inGroups        List<word> 1(symmetryPlane);
        nFaces          0;
        startFace       5206;
    }
    bottom
    {
        type            symmetryPlane;
        inGroups        List<word> 1(symmetryPlane);
        nFaces          0;
        startFace       5206;
    }
    defaultFaces
    {
        type            empty;
        inGroups        List<word> 1(empty);
        nFaces          5250;
        startFace       5206;
    }
    procBoundary5to0
    {
        type            processor;
        inGroups        List<word> 1(processor);
        nFaces          14;
        startFace       10456;
        matchTolerance  0.0001;
        transform       unknown;
        myProcNo        5;
        neighbProcNo    0;
    }
    procBoundary5to1
    {
        type            processor;
        inGroups        List<word> 1(processor);
        nFaces          69;
        startFace       10470;
        matchTolerance  0.0001;
        transform       unknown;
        myProcNo        5;
        neighbProcNo    1;
    }
    procBoundary5to2
    {
        type            processor;
        inGroups        List<word> 1(processor);
        nFaces          12;
        startFace       10539;
        matchTolerance  0.0001;
        transform       unknown;
        myProcNo        5;
        neighbProcNo    2;
    }
    procBoundary5to4
    {
        type            processor;
        inGroups        List<word> 1(processor);
        nFaces          69;
        startFace       10551;
        matchTolerance  0.0001;
        transform       unknown;
        myProcNo        5;
        neighbProcNo    4;
    }
    procBoundary5to6
    {
        type            processor;
        inGroups        List<word> 1(processor);
        nFaces          60;
        startFace       10620;
        matchTolerance  0.0001;
        transform       unknown;
        myProcNo        5;
        neighbProcNo    6;
    }
    procBoundary5to9
    {
        type            processor;
        inGroups        List<word> 1(processor);
        nFaces          12;
        startFace       10680;
        matchTolerance  0.0001;
        transform       unknown;
        myProcNo        5;
        neighbProcNo    9;
    }
)

// ************************************************************************* //
