/*--------------------------------*- C++ -*----------------------------------*\
  =========                 |
  \\      /  F ield         | OpenFOAM: The Open Source CFD Toolbox
   \\    /   O peration     | Website:  https://openfoam.org
    \\  /    A nd           | Version:  7
     \\/     M anipulation  |
\*---------------------------------------------------------------------------*/
FoamFile
{
    version     2.0;
    format      ascii;
    class       polyBoundaryMesh;
    location    "constant/polyMesh";
    object      boundary;
}
// * * * * * * * * * * * * * * * * * * * * * * * * * * * * * * * * * * * * * //

14
(
    inlet
    {
        type            patch;
        nFaces          0;
        startFace       5036;
    }
    outlet
    {
        type            patch;
        nFaces          0;
        startFace       5036;
    }
    cylinder
    {
        type            wall;
        inGroups        List<word> 1(wall);
        nFaces          158;
        startFace       5036;
    }
    top
    {
        type            symmetryPlane;
        inGroups        List<word> 1(symmetryPlane);
        nFaces          0;
        startFace       5194;
    }
    bottom
    {
        type            symmetryPlane;
        inGroups        List<word> 1(symmetryPlane);
        nFaces          0;
        startFace       5194;
    }
    defaultFaces
    {
        type            empty;
        inGroups        List<word> 1(empty);
        nFaces          5250;
        startFace       5194;
    }
    procBoundary9to4
    {
        type            processor;
        inGroups        List<word> 1(processor);
        nFaces          1;
        startFace       10444;
        matchTolerance  0.0001;
        transform       unknown;
        myProcNo        9;
        neighbProcNo    4;
    }
    procBoundary9to5
    {
        type            processor;
        inGroups        List<word> 1(processor);
        nFaces          21;
        startFace       10445;
        matchTolerance  0.0001;
        transform       unknown;
        myProcNo        9;
        neighbProcNo    5;
    }
    procBoundary9to6
    {
        type            processor;
        inGroups        List<word> 1(processor);
        nFaces          1;
        startFace       10466;
        matchTolerance  0.0001;
        transform       unknown;
        myProcNo        9;
        neighbProcNo    6;
    }
    procBoundary9to8
    {
        type            processor;
        inGroups        List<word> 1(processor);
        nFaces          75;
        startFace       10467;
        matchTolerance  0.0001;
        transform       unknown;
        myProcNo        9;
        neighbProcNo    8;
    }
    procBoundary9to10
    {
        type            processor;
        inGroups        List<word> 1(processor);
        nFaces          52;
        startFace       10542;
        matchTolerance  0.0001;
        transform       unknown;
        myProcNo        9;
        neighbProcNo    10;
    }
    procBoundary9to12
    {
        type            processor;
        inGroups        List<word> 1(processor);
        nFaces          5;
        startFace       10594;
        matchTolerance  0.0001;
        transform       unknown;
        myProcNo        9;
        neighbProcNo    12;
    }
    procBoundary9to13
    {
        type            processor;
        inGroups        List<word> 1(processor);
        nFaces          83;
        startFace       10599;
        matchTolerance  0.0001;
        transform       unknown;
        myProcNo        9;
        neighbProcNo    13;
    }
    procBoundary9to14
    {
        type            processor;
        inGroups        List<word> 1(processor);
        nFaces          32;
        startFace       10682;
        matchTolerance  0.0001;
        transform       unknown;
        myProcNo        9;
        neighbProcNo    14;
    }
)

// ************************************************************************* //
